159654
  -OEChem-02102613373D

 90 95  0     1  0  0  0  0  0999 V2000
    0.6195    0.4870   -2.0454 O   0  0  0  0  0  0  0  0  0  0  0  0
    1.6313    2.8934   -1.0980 O   0  0  0  0  0  0  0  0  0  0  0  0
    4.2581    2.4256    1.8050 O   0  0  0  0  0  0  0  0  0  0  0  0
    5.8910    2.3960   -0.4419 O   0  0  0  0  0  0  0  0  0  0  0  0
   -0.1380   -1.7564   -3.5013 O   0  0  0  0  0  0  0  0  0  0  0  0
   -8.6780   -2.5477    0.4368 O   0  0  0  0  0  0  0  0  0  0  0  0
    4.0221   -3.6815    0.7874 N   0  0  1  0  0  0  0  0  0  0  0  0
   -4.6828    2.6100    0.2471 N   0  0  1  0  0  0  0  0  0  0  0  0
    3.6803   -2.4656    1.5741 C   0  0  1  0  0  0  0  0  0  0  0  0
   -3.8023    1.4924   -0.1602 C   0  0  1  0  0  0  0  0  0  0  0  0
   -2.3564    1.8854   -0.4164 C   0  0  0  0  0  0  0  0  0  0  0  0
    4.2789   -1.1657    1.0299 C   0  0  0  0  0  0  0  0  0  0  0  0
   -4.0452    3.4706    1.2512 C   0  0  0  0  0  0  0  0  0  0  0  0
    5.3850   -3.6305    0.2451 C   0  0  0  0  0  0  0  0  0  0  0  0
   -2.7231    4.0845    0.7851 C   0  0  0  0  0  0  0  0  0  0  0  0
   -1.8374    3.0986    0.0701 C   0  0  0  0  0  0  0  0  0  0  0  0
    5.5041   -2.4715   -0.7391 C   0  0  0  0  0  0  0  0  0  0  0  0
    2.1449   -2.3454    1.6257 C   0  0  0  0  0  0  0  0  0  0  0  0
    5.1474   -1.1731   -0.0753 C   0  0  0  0  0  0  0  0  0  0  0  0
   -3.8759    0.3781    0.8961 C   0  0  0  0  0  0  0  0  0  0  0  0
   -1.5130    1.0168   -1.1276 C   0  0  0  0  0  0  0  0  0  0  0  0
    1.5425   -2.1861    0.2708 C   0  0  0  0  0  0  0  0  0  0  0  0
    4.0114    0.0609    1.6623 C   0  0  0  0  0  0  0  0  0  0  0  0
    3.8673   -4.9048    1.5839 C   0  0  0  0  0  0  0  0  0  0  0  0
   -5.1698    3.3726   -0.9028 C   0  0  0  0  0  0  0  0  0  0  0  0
   -0.4952    3.4260   -0.1703 C   0  0  0  0  0  0  0  0  0  0  0  0
    5.6684    0.0304   -0.5721 C   0  0  0  0  0  0  0  0  0  0  0  0
   -5.1518   -0.3990    0.7738 C   0  0  0  0  0  0  0  0  0  0  0  0
   -0.1773    1.3484   -1.3538 C   0  0  0  0  0  0  0  0  0  0  0  0
    0.3314    2.5521   -0.8748 C   0  0  0  0  0  0  0  0  0  0  0  0
    4.5466    1.2536    1.1729 C   0  0  0  0  0  0  0  0  0  0  0  0
    5.3673    1.2394    0.0502 C   0  0  0  0  0  0  0  0  0  0  0  0
    1.3580   -0.9116   -0.2652 C   0  0  0  0  0  0  0  0  0  0  0  0
    1.1625   -3.3118   -0.4601 C   0  0  0  0  0  0  0  0  0  0  0  0
    0.7964   -0.7829   -1.5239 C   0  0  0  0  0  0  0  0  0  0  0  0
   -5.2006   -1.5191   -0.0496 C   0  0  0  0  0  0  0  0  0  0  0  0
   -6.2767    0.0054    1.4850 C   0  0  0  0  0  0  0  0  0  0  0  0
    0.4138   -1.8886   -2.2629 C   0  0  0  0  0  0  0  0  0  0  0  0
    0.5982   -3.1631   -1.7269 C   0  0  0  0  0  0  0  0  0  0  0  0
   -6.3876   -2.2428   -0.1631 C   0  0  0  0  0  0  0  0  0  0  0  0
   -7.4637   -0.7185    1.3716 C   0  0  0  0  0  0  0  0  0  0  0  0
   -7.5191   -1.8426    0.5476 C   0  0  0  0  0  0  0  0  0  0  0  0
    2.0728    4.1443   -0.5732 C   0  0  0  0  0  0  0  0  0  0  0  0
    5.1383    2.8312    2.8513 C   0  0  0  0  0  0  0  0  0  0  0  0
    6.7223    2.2921   -1.5965 C   0  0  0  0  0  0  0  0  0  0  0  0
   -8.6657   -3.6864   -0.4227 C   0  0  0  0  0  0  0  0  0  0  0  0
    4.0740   -2.5746    2.5946 H   0  0  0  0  0  0  0  0  0  0  0  0
   -4.1859    1.0873   -1.1086 H   0  0  0  0  0  0  0  0  0  0  0  0
   -3.8688    2.8949    2.1676 H   0  0  0  0  0  0  0  0  0  0  0  0
   -4.7329    4.2702    1.5544 H   0  0  0  0  0  0  0  0  0  0  0  0
    5.6121   -4.5560   -0.2985 H   0  0  0  0  0  0  0  0  0  0  0  0
    6.1256   -3.5334    1.0508 H   0  0  0  0  0  0  0  0  0  0  0  0
   -2.9227    4.9225    0.1057 H   0  0  0  0  0  0  0  0  0  0  0  0
   -2.1972    4.4876    1.6592 H   0  0  0  0  0  0  0  0  0  0  0  0
    4.8403   -2.6260   -1.5988 H   0  0  0  0  0  0  0  0  0  0  0  0
    6.5342   -2.4347   -1.1133 H   0  0  0  0  0  0  0  0  0  0  0  0
    1.6984   -3.2156    2.1228 H   0  0  0  0  0  0  0  0  0  0  0  0
    1.8344   -1.5060    2.2614 H   0  0  0  0  0  0  0  0  0  0  0  0
   -3.0412   -0.3272    0.7780 H   0  0  0  0  0  0  0  0  0  0  0  0
   -3.7563    0.7530    1.9200 H   0  0  0  0  0  0  0  0  0  0  0  0
   -1.9160    0.0819   -1.5115 H   0  0  0  0  0  0  0  0  0  0  0  0
    3.3829    0.0934    2.5492 H   0  0  0  0  0  0  0  0  0  0  0  0
    4.5394   -4.9179    2.4497 H   0  0  0  0  0  0  0  0  0  0  0  0
    4.0822   -5.7884    0.9719 H   0  0  0  0  0  0  0  0  0  0  0  0
    2.8425   -5.0324    1.9436 H   0  0  0  0  0  0  0  0  0  0  0  0
   -4.3651    3.8140   -1.4999 H   0  0  0  0  0  0  0  0  0  0  0  0
   -5.7647    2.7281   -1.5599 H   0  0  0  0  0  0  0  0  0  0  0  0
   -5.8371    4.1779   -0.5757 H   0  0  0  0  0  0  0  0  0  0  0  0
   -0.1591    4.3835    0.2147 H   0  0  0  0  0  0  0  0  0  0  0  0
    6.3119   -0.0472   -1.4425 H   0  0  0  0  0  0  0  0  0  0  0  0
    1.6306   -0.0290    0.3032 H   0  0  0  0  0  0  0  0  0  0  0  0
    1.2876   -4.3118   -0.0543 H   0  0  0  0  0  0  0  0  0  0  0  0
   -4.3256   -1.8381   -0.6096 H   0  0  0  0  0  0  0  0  0  0  0  0
   -6.2460    0.8758    2.1345 H   0  0  0  0  0  0  0  0  0  0  0  0
    0.3044   -4.0484   -2.2844 H   0  0  0  0  0  0  0  0  0  0  0  0
   -6.3615   -3.1048   -0.8210 H   0  0  0  0  0  0  0  0  0  0  0  0
   -8.3416   -0.4024    1.9284 H   0  0  0  0  0  0  0  0  0  0  0  0
    3.1315    4.2464   -0.8341 H   0  0  0  0  0  0  0  0  0  0  0  0
    1.5481    4.9852   -1.0392 H   0  0  0  0  0  0  0  0  0  0  0  0
    2.0127    4.1678    0.5203 H   0  0  0  0  0  0  0  0  0  0  0  0
    4.7805    3.7848    3.2492 H   0  0  0  0  0  0  0  0  0  0  0  0
    6.1541    2.9709    2.4681 H   0  0  0  0  0  0  0  0  0  0  0  0
    5.1392    2.0928    3.6592 H   0  0  0  0  0  0  0  0  0  0  0  0
    6.1688    1.9062   -2.4594 H   0  0  0  0  0  0  0  0  0  0  0  0
    7.0436    3.3068   -1.8538 H   0  0  0  0  0  0  0  0  0  0  0  0
    7.6299    1.7148   -1.3896 H   0  0  0  0  0  0  0  0  0  0  0  0
   -0.3385   -2.6401   -3.8547 H   0  0  0  0  0  0  0  0  0  0  0  0
   -7.9684   -4.4522   -0.0662 H   0  0  0  0  0  0  0  0  0  0  0  0
   -8.4743   -3.4030   -1.4633 H   0  0  0  0  0  0  0  0  0  0  0  0
   -9.6677   -4.1267   -0.3905 H   0  0  0  0  0  0  0  0  0  0  0  0
  1 29  1  0  0  0  0
  1 35  1  0  0  0  0
  2 30  1  0  0  0  0
  2 43  1  0  0  0  0
  3 31  1  0  0  0  0
  3 44  1  0  0  0  0
  4 32  1  0  0  0  0
  4 45  1  0  0  0  0
  5 38  1  0  0  0  0
  5 87  1  0  0  0  0
  6 42  1  0  0  0  0
  6 46  1  0  0  0  0
  7  9  1  0  0  0  0
  7 14  1  0  0  0  0
  7 24  1  0  0  0  0
  8 10  1  0  0  0  0
  8 13  1  0  0  0  0
  8 25  1  0  0  0  0
  9 12  1  0  0  0  0
  9 18  1  0  0  0  0
  9 47  1  0  0  0  0
 10 11  1  0  0  0  0
 10 20  1  0  0  0  0
 10 48  1  0  0  0  0
 11 16  1  0  0  0  0
 11 21  2  0  0  0  0
 12 19  1  0  0  0  0
 12 23  2  0  0  0  0
 13 15  1  0  0  0  0
 13 49  1  0  0  0  0
 13 50  1  0  0  0  0
 14 17  1  0  0  0  0
 14 51  1  0  0  0  0
 14 52  1  0  0  0  0
 15 16  1  0  0  0  0
 15 53  1  0  0  0  0
 15 54  1  0  0  0  0
 16 26  2  0  0  0  0
 17 19  1  0  0  0  0
 17 55  1  0  0  0  0
 17 56  1  0  0  0  0
 18 22  1  0  0  0  0
 18 57  1  0  0  0  0
 18 58  1  0  0  0  0
 19 27  2  0  0  0  0
 20 28  1  0  0  0  0
 20 59  1  0  0  0  0
 20 60  1  0  0  0  0
 21 29  1  0  0  0  0
 21 61  1  0  0  0  0
 22 33  2  0  0  0  0
 22 34  1  0  0  0  0
 23 31  1  0  0  0  0
 23 62  1  0  0  0  0
 24 63  1  0  0  0  0
 24 64  1  0  0  0  0
 24 65  1  0  0  0  0
 25 66  1  0  0  0  0
 25 67  1  0  0  0  0
 25 68  1  0  0  0  0
 26 30  1  0  0  0  0
 26 69  1  0  0  0  0
 27 32  1  0  0  0  0
 27 70  1  0  0  0  0
 28 36  2  0  0  0  0
 28 37  1  0  0  0  0
 29 30  2  0  0  0  0
 31 32  2  0  0  0  0
 33 35  1  0  0  0  0
 33 71  1  0  0  0  0
 34 39  2  0  0  0  0
 34 72  1  0  0  0  0
 35 38  2  0  0  0  0
 36 40  1  0  0  0  0
 36 73  1  0  0  0  0
 37 41  2  0  0  0  0
 37 74  1  0  0  0  0
 38 39  1  0  0  0  0
 39 75  1  0  0  0  0
 40 42  2  0  0  0  0
 40 76  1  0  0  0  0
 41 42  1  0  0  0  0
 41 77  1  0  0  0  0
 43 78  1  0  0  0  0
 43 79  1  0  0  0  0
 43 80  1  0  0  0  0
 44 81  1  0  0  0  0
 44 82  1  0  0  0  0
 44 83  1  0  0  0  0
 45 84  1  0  0  0  0
 45 85  1  0  0  0  0
 45 86  1  0  0  0  0
 46 88  1  0  0  0  0
 46 89  1  0  0  0  0
 46 90  1  0  0  0  0
M  END
> <PUBCHEM_COMPOUND_CID>
159654

> <PUBCHEM_CONFORMER_RMSD>
1.2

> <PUBCHEM_CONFORMER_DIVERSEORDER>
40
36
123
164
52
6
217
88
315
354
178
177
7
223
16
316
140
173
338
142
221
64
231
32
342
334
355
306
45
270
10
226
220
192
214
301
343
212
183
68
28
333
275
99
124
132
289
346
181
110
249
154
101
167
204
79
1
198
95
122
211
304
209
213
263
21
143
268
144
206
328
215
318
273
89
103
367
74
361
310
182
372
91
248
75
104
29
145
227
186
46
358
23
195
340
118
72
329
351
311
69
150
283
112
148
242
137
119
337
136
175
57
66
363
163
41
369
312
65
296
286
58
317
165
300
22
18
267
73
114
353
55
67
15
348
377
290
295
205
356
85
238
131
323
293
187
344
375
185
307
365
292
106
117
82
297
190
129
359
291
116
262
284
60
314
71
279
97
280
108
350
200
80
244
281
189
152
252
53
199
128
232
230
305
194
368
157
17
322
237
147
254
111
298
2
303
376
78
216
371
272
241
243
14
278
47
197
345
170
335
374
27
364
336
169
34
373
63
233
320
86
141
4
9
184
294
113
151
193
8
366
155
159
100
61
271
319
202
287
139
302
37
247
92
266
330
87
168
264
50
162
166
362
56
176
138
321
54
288
81
235
77
234
352
228
224
161
62
180
135
188
239
207
107
245
370
160
210
260
246
250
158
146
30
349
11
259
76
357
120
105
126
277
299
191
257
285
360
13
308
25
325
261
265
218
313
133
256
153
255
309
31
43
149
59
327
225
258
208
276
339
130
33
341
115
19
42
24
251
332
98
174
26
219
179
90
51
94
12
326
134
48
5
127
172
102
121
83
347
331
171
39
84
3
70
236
253
38
229
274
203
96
196
156
125
282
269
222
44
109
49
35
324
93
20
201
240

> <PUBCHEM_MMFF94_PARTIAL_CHARGES>
58
1 -0.17
10 0.41
11 -0.14
12 -0.14
13 0.27
14 0.27
15 0.14
16 -0.14
17 0.14
18 0.14
19 -0.14
2 -0.36
20 0.14
21 -0.15
22 -0.14
23 -0.15
24 0.27
25 0.27
26 -0.15
27 -0.15
28 -0.14
29 0.08
3 -0.36
30 0.08
31 0.08
32 0.08
33 -0.15
34 -0.15
35 0.08
36 -0.15
37 -0.15
38 0.08
39 -0.15
4 -0.36
40 -0.15
41 -0.15
42 0.08
43 0.28
44 0.28
45 0.28
46 0.28
5 -0.53
6 -0.36
61 0.15
62 0.15
69 0.15
7 -0.81
70 0.15
71 0.15
72 0.15
73 0.15
74 0.15
75 0.15
76 0.15
77 0.15
8 -0.81
87 0.45
9 0.41

> <PUBCHEM_EFFECTIVE_ROTOR_COUNT>
11.6

> <PUBCHEM_PHARMACOPHORE_FEATURES>
14
1 1 acceptor
1 2 acceptor
1 3 acceptor
1 4 acceptor
1 5 donor
1 6 acceptor
1 7 cation
1 8 cation
6 11 16 21 26 29 30 rings
6 12 19 23 27 31 32 rings
6 22 33 34 35 38 39 rings
6 28 36 37 40 41 42 rings
6 7 9 12 14 17 19 rings
6 8 10 11 13 15 16 rings

> <PUBCHEM_HEAVY_ATOM_COUNT>
46

> <PUBCHEM_ATOM_DEF_STEREO_COUNT>
2

> <PUBCHEM_ATOM_UDEF_STEREO_COUNT>
0

> <PUBCHEM_BOND_DEF_STEREO_COUNT>
0

> <PUBCHEM_BOND_UDEF_STEREO_COUNT>
0

> <PUBCHEM_ISOTOPIC_ATOM_COUNT>
0

> <PUBCHEM_COMPONENT_COUNT>
1

> <PUBCHEM_CACTVS_TAUTO_COUNT>
3

> <PUBCHEM_CONFORMER_ID>
00026FA600000028

> <PUBCHEM_MMFF94_ENERGY>
183.8643

> <PUBCHEM_FEATURE_SELFOVERLAP>
71.101

> <PUBCHEM_SHAPE_FINGERPRINT>
10842051 180 18188209921965818933
1361 2 18334579079008958784
13811026 1 18336820918424264369
14394314 77 18410300203537652769
150020 26 17694480569902564352
15406563 185 17843705467253553092
21458453 9 18271247217976717563
392239 28 17971192534649276082
4144715 1 17766843827618989474
4394409 98 13190344582346981681
4461854 278 18129676321604709607
4756261 7 18269265940740548443
50677037 204 17913748764188328983
6523845 18 17060623291567186894
9555976 147 18057046804830008833

> <PUBCHEM_SHAPE_MULTIPOLES>
901.48
20.07
6.54
2.07
28.58
0.03
0.35
-11.07
-6.07
-0.82
-0.68
-1.8
-0.18
-0.68

> <PUBCHEM_SHAPE_SELFOVERLAP>
1961.755

> <PUBCHEM_SHAPE_VOLUME>
492.6

> <PUBCHEM_COORDINATE_TYPE>
2
5
10

$$$$
