5316833
  -OEChem-02102613373D

 45 47  0     0  0  0  0  0  0999 V2000
    0.0559   -0.4231   -0.5043 O   0  0  0  0  0  0  0  0  0  0  0  0
   -1.5602   -2.5927   -0.6574 O   0  0  0  0  0  0  0  0  0  0  0  0
   -5.3513    0.0628    0.5168 O   0  0  0  0  0  0  0  0  0  0  0  0
   -3.7776    2.2848    0.6866 O   0  0  0  0  0  0  0  0  0  0  0  0
    2.7646   -0.1040    1.5713 O   0  0  0  0  0  0  0  0  0  0  0  0
   -4.2604   -2.3750   -0.1551 O   0  0  0  0  0  0  0  0  0  0  0  0
   -1.3686    3.2672    0.4714 O   0  0  0  0  0  0  0  0  0  0  0  0
    5.3986   -0.6432    0.9538 O   0  0  0  0  0  0  0  0  0  0  0  0
   -1.8334    0.9810    0.0954 C   0  0  0  0  0  0  0  0  0  0  0  0
   -1.2802   -0.2528   -0.2429 C   0  0  0  0  0  0  0  0  0  0  0  0
    0.8882    0.6837   -0.4365 C   0  0  0  0  0  0  0  0  0  0  0  0
    2.3049    0.3879   -0.7301 C   0  0  0  0  0  0  0  0  0  0  0  0
   -2.0944   -1.3826   -0.3266 C   0  0  0  0  0  0  0  0  0  0  0  0
   -3.2017    1.0952    0.3520 C   0  0  0  0  0  0  0  0  0  0  0  0
   -0.9516    2.1553    0.1776 C   0  0  0  0  0  0  0  0  0  0  0  0
    0.4766    1.9207   -0.1156 C   0  0  0  0  0  0  0  0  0  0  0  0
   -4.0138   -0.0364    0.2671 C   0  0  0  0  0  0  0  0  0  0  0  0
   -3.4616   -1.2726   -0.0713 C   0  0  0  0  0  0  0  0  0  0  0  0
    3.1931    0.0051    0.2800 C   0  0  0  0  0  0  0  0  0  0  0  0
    2.7634    0.4933   -2.0469 C   0  0  0  0  0  0  0  0  0  0  0  0
    4.5264   -0.2694   -0.0238 C   0  0  0  0  0  0  0  0  0  0  0  0
    4.0969    0.2189   -2.3506 C   0  0  0  0  0  0  0  0  0  0  0  0
    4.9784   -0.1625   -1.3391 C   0  0  0  0  0  0  0  0  0  0  0  0
   -1.0960   -3.4099    0.4146 C   0  0  0  0  0  0  0  0  0  0  0  0
   -6.1961    0.3537   -0.5939 C   0  0  0  0  0  0  0  0  0  0  0  0
    2.8898   -1.3829    2.1872 C   0  0  0  0  0  0  0  0  0  0  0  0
    6.1101    0.3977    1.6202 C   0  0  0  0  0  0  0  0  0  0  0  0
    1.1518    2.7673   -0.0619 H   0  0  0  0  0  0  0  0  0  0  0  0
    2.0898    0.7881   -2.8482 H   0  0  0  0  0  0  0  0  0  0  0  0
    4.4488    0.3016   -3.3747 H   0  0  0  0  0  0  0  0  0  0  0  0
    6.0156   -0.3756   -1.5833 H   0  0  0  0  0  0  0  0  0  0  0  0
   -3.1164    2.9930    0.7074 H   0  0  0  0  0  0  0  0  0  0  0  0
   -5.1645   -2.1240    0.1009 H   0  0  0  0  0  0  0  0  0  0  0  0
   -1.9168   -3.6563    1.0955 H   0  0  0  0  0  0  0  0  0  0  0  0
   -0.2923   -2.9075    0.9624 H   0  0  0  0  0  0  0  0  0  0  0  0
   -0.7024   -4.3383   -0.0081 H   0  0  0  0  0  0  0  0  0  0  0  0
   -5.9596    1.3387   -1.0084 H   0  0  0  0  0  0  0  0  0  0  0  0
   -7.2317    0.3628   -0.2430 H   0  0  0  0  0  0  0  0  0  0  0  0
   -6.0973   -0.4119   -1.3699 H   0  0  0  0  0  0  0  0  0  0  0  0
    3.7965   -1.4188    2.7975 H   0  0  0  0  0  0  0  0  0  0  0  0
    2.8885   -2.1992    1.4562 H   0  0  0  0  0  0  0  0  0  0  0  0
    2.0310   -1.5215    2.8508 H   0  0  0  0  0  0  0  0  0  0  0  0
    5.4161    1.0860    2.1128 H   0  0  0  0  0  0  0  0  0  0  0  0
    6.7419    0.9437    0.9123 H   0  0  0  0  0  0  0  0  0  0  0  0
    6.7498   -0.0575    2.3812 H   0  0  0  0  0  0  0  0  0  0  0  0
  1 10  1  0  0  0  0
  1 11  1  0  0  0  0
  2 13  1  0  0  0  0
  2 24  1  0  0  0  0
  3 17  1  0  0  0  0
  3 25  1  0  0  0  0
  4 14  1  0  0  0  0
  4 32  1  0  0  0  0
  5 19  1  0  0  0  0
  5 26  1  0  0  0  0
  6 18  1  0  0  0  0
  6 33  1  0  0  0  0
  7 15  2  0  0  0  0
  8 21  1  0  0  0  0
  8 27  1  0  0  0  0
  9 10  1  0  0  0  0
  9 14  2  0  0  0  0
  9 15  1  0  0  0  0
 10 13  2  0  0  0  0
 11 12  1  0  0  0  0
 11 16  2  0  0  0  0
 12 19  2  0  0  0  0
 12 20  1  0  0  0  0
 13 18  1  0  0  0  0
 14 17  1  0  0  0  0
 15 16  1  0  0  0  0
 16 28  1  0  0  0  0
 17 18  2  0  0  0  0
 19 21  1  0  0  0  0
 20 22  2  0  0  0  0
 20 29  1  0  0  0  0
 21 23  2  0  0  0  0
 22 23  1  0  0  0  0
 22 30  1  0  0  0  0
 23 31  1  0  0  0  0
 24 34  1  0  0  0  0
 24 35  1  0  0  0  0
 24 36  1  0  0  0  0
 25 37  1  0  0  0  0
 25 38  1  0  0  0  0
 25 39  1  0  0  0  0
 26 40  1  0  0  0  0
 26 41  1  0  0  0  0
 26 42  1  0  0  0  0
 27 43  1  0  0  0  0
 27 44  1  0  0  0  0
 27 45  1  0  0  0  0
M  END
> <PUBCHEM_COMPOUND_CID>
5316833

> <PUBCHEM_CONFORMER_RMSD>
0.8

> <PUBCHEM_CONFORMER_DIVERSEORDER>
1
9
8
2
7
6
10
5
4
3

> <PUBCHEM_MMFF94_PARTIAL_CHARGES>
33
1 -0.16
10 0.08
11 0.05
12 0.03
13 0.08
14 0.08
15 0.47
16 -0.14
17 0.08
18 0.08
19 0.08
2 -0.36
20 -0.15
21 0.08
22 -0.15
23 -0.15
24 0.28
25 0.28
26 0.28
27 0.28
28 0.15
29 0.15
3 -0.36
30 0.15
31 0.15
32 0.45
33 0.45
4 -0.53
5 -0.36
6 -0.53
7 -0.57
8 -0.36
9 0.09

> <PUBCHEM_EFFECTIVE_ROTOR_COUNT>
5

> <PUBCHEM_PHARMACOPHORE_FEATURES>
11
1 1 acceptor
1 2 acceptor
1 3 acceptor
1 4 donor
1 5 acceptor
1 6 donor
1 7 acceptor
1 8 acceptor
6 1 9 10 11 15 16 rings
6 12 19 20 21 22 23 rings
6 9 10 13 14 17 18 rings

> <PUBCHEM_HEAVY_ATOM_COUNT>
27

> <PUBCHEM_ATOM_DEF_STEREO_COUNT>
0

> <PUBCHEM_ATOM_UDEF_STEREO_COUNT>
0

> <PUBCHEM_BOND_DEF_STEREO_COUNT>
0

> <PUBCHEM_BOND_UDEF_STEREO_COUNT>
0

> <PUBCHEM_ISOTOPIC_ATOM_COUNT>
0

> <PUBCHEM_COMPONENT_COUNT>
1

> <PUBCHEM_CACTVS_TAUTO_COUNT>
12

> <PUBCHEM_CONFORMER_ID>
005120E100000001

> <PUBCHEM_MMFF94_ENERGY>
125.4155

> <PUBCHEM_FEATURE_SELFOVERLAP>
55.864

> <PUBCHEM_SHAPE_FINGERPRINT>
10 15 17703777147068850848
10319926 262 18200864073321881322
11370993 144 16486705683482791184
11646440 116 18059869380638892963
12236239 1 17894915130768783829
12553582 1 18410859892655828207
12616971 3 17458064871929313358
12788726 201 18336555927706551137
13140716 1 18268710691389136561
13726171 33 17906773462422225084
13782708 43 17131562647788144974
13862211 1 18413108377408810719
13911987 19 14996581538619400330
13947920 75 18335150799834315366
14022347 108 18339935877804942388
14386348 63 17561087990449649132
16752209 62 18410294683665731573
17349148 13 18342735209098541805
1813 80 17241329054374439958
19319366 153 17822006519300719130
200 152 17022903441290829420
20028762 73 17987521571482780663
20511986 3 17895183403185208436
20600515 1 18343304794544644812
21033648 29 16773508884925361353
21267235 1 18339939176867222877
21859007 373 18115850954537458437
23366157 5 17901671792952129421
23402539 116 18272646870566626959
23557571 272 17988931037207882088
23559900 14 18130232656558746044
3004659 81 18261402177865458868
3178227 256 18337690693427654115
335352 9 18412831305037543669
3383291 50 18338518650879264483
339767 52 18334851723200611962
5104073 3 18197788893469402385
5385378 56 18267875978287695163
59755656 215 18271248227409790727
602551 16 18342740715357163834

> <PUBCHEM_SHAPE_MULTIPOLES>
508.69
12.44
2.6
1.57
1.89
0.72
0.16
0.65
-0.96
-2.9
-0.47
2.94
0.09
-1.17

> <PUBCHEM_SHAPE_SELFOVERLAP>
1113.823

> <PUBCHEM_SHAPE_VOLUME>
275.9

> <PUBCHEM_COORDINATE_TYPE>
2
5
10

$$$$
